3
! RI-B2PLYP D3BJ def2-TZVP def2-TZVP/C Opt VERYTIGHTSCF Grid7 FINALGrid7
C -1.089683 -0.216200 -0.000528
N 0.055967 0.010994 0.000055
H 1.033716 0.205207 0.000472
3
! RI-B2PLYP D3BJ def2-TZVP def2-TZVP/C Opt VERYTIGHTSCF Grid7 FINALGrid7
C -1.035522 -0.173335 -0.008704
N 0.057883 -0.058374 0.017867
H 0.977639 0.231709 -0.009164
3
! RI-B2PLYP D3BJ def2-TZVP def2-TZVP/C Opt VERYTIGHTSCF Grid7 FINALGrid7
C -0.981346 -0.130470 -0.016879
N 0.059769 -0.127745 0.035678
H 0.921577 0.258214 -0.018800
3
! RI-B2PLYP D3BJ def2-TZVP def2-TZVP/C Opt VERYTIGHTSCF Grid7 FINALGrid7
C -0.927154 -0.087607 -0.025052
N 0.061620 -0.197118 0.053488
H 0.865534 0.284725 -0.028436
3
! RI-B2PLYP D3BJ def2-TZVP def2-TZVP/C Opt VERYTIGHTSCF Grid7 FINALGrid7
C -0.872943 -0.044750 -0.033223
N 0.063431 -0.266493 0.071296
H 0.809511 0.311243 -0.038073
3
! RI-B2PLYP D3BJ def2-TZVP def2-TZVP/C Opt VERYTIGHTSCF Grid7 FINALGrid7
C -0.814931 -0.004039 -0.040652
N 0.056261 -0.336171 0.088722
H 0.758669 0.340210 -0.048071
3
! RI-B2PLYP D3BJ def2-TZVP def2-TZVP/C Opt VERYTIGHTSCF Grid7 FINALGrid7
C -0.756874 0.036641 -0.048070
N 0.049000 -0.405844 0.106143
H 0.707873 0.369203 -0.058073
3
! RI-B2PLYP D3BJ def2-TZVP def2-TZVP/C Opt VERYTIGHTSCF Grid7 FINALGrid7
C -0.698769 0.077279 -0.055476
N 0.041645 -0.475512 0.123557
H 0.657124 0.398233 -0.068081
3
! RI-B2PLYP D3BJ def2-TZVP def2-TZVP/C Opt VERYTIGHTSCF Grid7 FINALGrid7
C -0.640613 0.117865 -0.062865
N 0.034193 -0.545174 0.140965
H 0.606420 0.427309 -0.078100
3
! RI-B2PLYP D3BJ def2-TZVP def2-TZVP/C Opt VERYTIGHTSCF Grid7 FINALGrid7
C -0.567863 0.113681 -0.058075
N -0.023924 -0.595482 0.150839
H 0.591787 0.481801 -0.092763
3
! RI-B2PLYP D3BJ def2-TZVP def2-TZVP/C Opt VERYTIGHTSCF Grid7 FINALGrid7
C -0.495125 0.109365 -0.053253
N -0.082123 -0.645692 0.160684
H 0.577247 0.536327 -0.107431
3
! RI-B2PLYP D3BJ def2-TZVP def2-TZVP/C Opt VERYTIGHTSCF Grid7 FINALGrid7
C -0.422400 0.104911 -0.048396
N -0.140389 -0.695808 0.170501
H 0.562788 0.590897 -0.122105
3
! RI-B2PLYP D3BJ def2-TZVP def2-TZVP/C Opt VERYTIGHTSCF Grid7 FINALGrid7
C -0.387247 0.100931 -0.045581
N -0.169505 -0.719216 0.174989
H 0.556752 0.618284 -0.129408
3
! RI-B2PLYP D3BJ def2-TZVP def2-TZVP/C Opt VERYTIGHTSCF Grid7 FINALGrid7
C -0.352097 0.096936 -0.042763
N -0.198626 -0.742614 0.179474
H 0.550723 0.645678 -0.136711
3
! RI-B2PLYP D3BJ def2-TZVP def2-TZVP/C Opt VERYTIGHTSCF Grid7 FINALGrid7
C -0.316949 0.092926 -0.039941
N -0.227751 -0.766002 0.183957
H 0.544701 0.673077 -0.144016
3
! RI-B2PLYP D3BJ def2-TZVP def2-TZVP/C Opt VERYTIGHTSCF Grid7 FINALGrid7
C -0.281804 0.088901 -0.037116
N -0.256879 -0.789382 0.188438
H 0.538683 0.700482 -0.151322
3
! RI-B2PLYP D3BJ def2-TZVP def2-TZVP/C Opt VERYTIGHTSCF Grid7 FINALGrid7
C -0.214011 0.077172 -0.030653
N -0.314478 -0.833038 0.196640
H 0.528489 0.755866 -0.165986
3
! RI-B2PLYP D3BJ def2-TZVP def2-TZVP/C Opt VERYTIGHTSCF Grid7 FINALGrid7
C -0.146228 0.065400 -0.024180
N -0.372081 -0.876670 0.204835
H 0.518308 0.811269 -0.180655
3
! RI-B2PLYP D3BJ def2-TZVP def2-TZVP/C Opt VERYTIGHTSCF Grid7 FINALGrid7
C -0.093071 0.052054 -0.018053
N -0.418275 -0.909751 0.210920
H 0.511346 0.857697 -0.192867
3
! RI-B2PLYP D3BJ def2-TZVP def2-TZVP/C Opt VERYTIGHTSCF Grid7 FINALGrid7
C -0.039915 0.038707 -0.011926
N -0.464469 -0.942833 0.217005
H 0.504383 0.904126 -0.205079
3
! RI-B2PLYP D3BJ def2-TZVP def2-TZVP/C Opt VERYTIGHTSCF Grid7 FINALGrid7
C 0.013242 0.025360 -0.005799
N -0.510663 -0.975914 0.223090
H 0.497421 0.950554 -0.217291
